Circuit: * C:\Users\krist\Documents\Homework\Engr\339_340\TeamSediSensor\Electronics\Simulation\ADC\test_ADC.asc

WARNING: Less than two connections to node VTEST.  This node is used by VTEST.
WARNING: Less than two connections to node VTEST2.  This node is used by VTEST2.
WARNING: Less than two connections to node -VCC.  This node is used by V5.
Direct Newton iteration failed to find .op point.  (Use ".option noopiter" to skip.)
Starting Gmin stepping
Gmin = 10
Gmin = 1.07374
Gmin = 0.115292
Gmin = 0.0123794
Gmin = 0.00132923
Gmin = 0.000142725
Gmin = 1.5325e-005
Gmin = 1.6455e-006
Gmin = 1.76685e-007
Gmin = 1.89714e-008
Gmin = 2.03704e-009
Gmin = 2.18725e-010
Gmin = 2.34854e-011
Gmin = 2.52173e-012
Gmin = 2.70769e-013
Gmin = 0
Gmin stepping succeeded in finding the operating point.

Ignoring empty pin current: Ix(u1:9)
Ignoring empty pin current: Ix(u1:9)

Date: Mon Jan 31 14:40:07 2022
Total elapsed time: 21.626 seconds.

tnom = 27
temp = 27
method = modified trap
totiter = 716314
traniter = 715863
tranpoints = 336192
accept = 290443
rejected = 45749
matrix size = 265
fillins = 3
solver = Normal
Thread vector: 31.4/8.4[8] 4.8/1.8[8] 4.3/2.0[8] 0.5/1.0[1]  2592/500
Matrix Compiler1: 8.59 KB object code size  2.0/1.0/[0.6]
Matrix Compiler2: 18.07 KB object code size  1.3/2.1/[0.5]

