Circuit: * C:\Users\krist\Documents\Homework\Engr\339_340\TeamSediSensor\Electronics\Simulation\TransAmpedance\Draft1.asc

WARNING: Less than two connections to node N005.  This node is used by Q2.
Direct Newton iteration for .op point succeeded.

Date: Tue Mar 22 00:10:47 2022
Total elapsed time: 0.784 seconds.

tnom = 27
temp = 27
method = modified trap
totiter = 88060
traniter = 88034
tranpoints = 33565
accept = 27530
rejected = 6035
matrix size = 29
fillins = 19
solver = Normal
Thread vector: 6.4/4.1[2] 1.4/1.1[2] 0.9/0.7[2] 0.1/0.6[1]  2592/500
Matrix Compiler1: 2.27 KB object code size  0.4/0.2/[0.2]
Matrix Compiler2: off  [0.2]/0.3/0.4

