Circuit: * C:\Users\krist\Documents\Homework\Engr\339_340\TeamSediSensor\Electronics\Simulation\TransAmpedance\test_TransAmpedanceAmplifier.asc

WARNING: Less than two connections to node VTEST.  This node is used by VTEST.
WARNING: Less than two connections to node VTEST2.  This node is used by VTEST2.

Date: Fri Feb 04 15:16:30 2022
Total elapsed time: 0.121 seconds.

tnom = 27
temp = 27
method = trap
totiter = 4031
traniter = 0
tranpoints = 0
accept = 0
rejected = 0
matrix size = 37
fillins = 9
solver = Normal
Thread vector: 4.6/3.6[2] 0.0/0.0[0] 1.2/1.0[2] 0.1/0.6[1]  2592/500
Matrix Compiler1: 2.18 KB object code size  0.5/0.2/[0.1]
Matrix Compiler2: 3.51 KB object code size  0.2/0.3/[0.1]

