Circuit: * C:\Users\krist\Documents\Homework\Engr\339_340\TeamSediSensor\Electronics\Simulation\Rail-to-Rail\test_RROpAmp.asc

WARNING: Less than two connections to node -VCC.  This node is used by V§-VCC.
WARNING: Less than two connections to node VTEST.  This node is used by VTEST.
Direct Newton iteration for .op point succeeded.

Date: Sun Jan 30 13:27:33 2022
Total elapsed time: 0.080 seconds.

tnom = 27
temp = 27
method = modified trap
totiter = 3899
traniter = 3895
tranpoints = 1792
accept = 1558
rejected = 234
matrix size = 14
fillins = 4
solver = Normal
Matrix Compiler1: 672 bytes object code size  0.1/0.1/[0.1]
Matrix Compiler2: 1.08 KB object code size  0.1/0.1/[0.1]

