Circuit: * C:\Users\krist\Documents\Homework\Engr\339_340\TeamSediSensor\Electronics\Simulation\Physical_Circuit_models\Circuit_Models.asc


Date: Fri Feb 04 14:45:56 2022
Total elapsed time: 0.060 seconds.

tnom = 27
temp = 27
method = trap
totiter = 1023
traniter = 0
tranpoints = 0
accept = 0
rejected = 0
matrix size = 14
fillins = 1
solver = Normal
Matrix Compiler1: 608 bytes object code size  0.1/0.0/[0.0]
Matrix Compiler2: off  [0.1]/0.1/0.1

