Circuit: * C:\Users\krist\Documents\Homework\Engr\339_340\TeamSediSensor\Electronics\Simulation\Physical_Circuit_models\Circuit_Models.asc


Date: Fri Feb 04 17:14:45 2022
Total elapsed time: 0.051 seconds.

tnom = 27
temp = 27
method = trap
totiter = 1011
traniter = 0
tranpoints = 0
accept = 0
rejected = 0
matrix size = 15
fillins = 1
solver = Normal
Matrix Compiler1: 640 bytes object code size  0.1/0.1/[0.1]
Matrix Compiler2: 1.30 KB object code size  0.1/0.1/[0.1]

